Version 4
SHEET 1 880 680
WIRE 800 -176 144 -176
WIRE 800 -160 800 -176
WIRE 144 0 144 -176
WIRE 112 16 -320 16
WIRE 112 48 0 48
WIRE 0 64 0 48
WIRE 384 96 288 96
WIRE 112 144 0 144
WIRE 224 176 224 160
WIRE 240 176 224 176
WIRE 144 208 144 192
WIRE 800 208 800 -80
WIRE 800 208 144 208
WIRE -320 256 -320 16
WIRE 240 272 240 176
WIRE -320 480 -320 336
FLAG 800 208 0
FLAG 240 352 0
FLAG -320 480 0
FLAG 112 176 0
SYMBOL OpAmps\\AD8422 144 96 R0
SYMATTR InstName U1
SYMBOL voltage -320 240 R0
WINDOW 123 0 0 Left 0
WINDOW 39 0 0 Left 0
SYMATTR InstName V1
SYMATTR Value PULSE(0 5 50m 10m 10m 50m 250m)
SYMBOL res -16 48 R0
SYMATTR InstName R1
SYMATTR Value 14143
SYMBOL voltage 800 -176 R0
WINDOW 123 0 0 Left 0
WINDOW 39 0 0 Left 0
SYMATTR InstName V2
SYMATTR Value 60
SYMBOL voltage 240 256 R0
WINDOW 123 0 0 Left 0
WINDOW 39 0 0 Left 0
SYMATTR InstName V3
SYMATTR Value 0
TEXT -136 -184 Left 2 !.tran 0 1 0m .05m
