Version 4
SHEET 1 884 680
WIRE 544 -400 544 -464
WIRE 736 -400 544 -400
WIRE 544 -336 544 -400
WIRE 736 -320 736 -400
WIRE 544 -224 544 -256
WIRE 736 -224 736 -256
WIRE 736 -224 544 -224
WIRE 864 -224 736 -224
WIRE 864 -208 864 -224
WIRE 544 -176 544 -224
WIRE 736 -160 736 -224
WIRE 96 -80 48 -80
WIRE 224 -80 176 -80
WIRE 544 -48 544 -96
WIRE 736 -48 736 -96
WIRE 736 -48 544 -48
WIRE -112 128 -480 128
WIRE 48 128 48 -80
WIRE 48 128 -32 128
WIRE 112 128 48 128
WIRE 224 144 224 -80
WIRE 224 144 176 144
WIRE 320 144 224 144
WIRE 416 144 320 144
WIRE 464 144 416 144
WIRE 112 160 -368 160
WIRE 320 176 320 144
WIRE 416 176 416 144
WIRE 320 272 320 240
WIRE 416 272 416 256
WIRE 416 272 320 272
WIRE 464 272 416 272
WIRE -368 288 -368 160
WIRE 320 288 320 272
WIRE -480 384 -480 128
WIRE -368 416 -368 368
FLAG 864 -208 0
FLAG 144 112 +12V
IOPIN 144 112 In
FLAG 544 -464 +12V
IOPIN 544 -464 Out
FLAG -368 416 0
FLAG -480 384 0
FLAG 320 288 0
FLAG 464 144 +Solenoid_Valve
IOPIN 464 144 Out
FLAG 464 272 -Solenoid_Valve
IOPIN 464 272 Out
FLAG 544 -48 -12V
IOPIN 544 -48 BiDir
FLAG 144 176 -12V
IOPIN 144 176 BiDir
SYMBOL voltage 544 -352 R0
WINDOW 123 0 0 Left 0
WINDOW 39 0 0 Left 0
SYMATTR InstName V1
SYMATTR Value 12
SYMBOL voltage -368 272 R0
WINDOW 123 0 0 Left 0
WINDOW 39 0 0 Left 0
SYMATTR InstName Arduino_Vin
SYMATTR Value PULSE(0 5 2.5m .01m .01m 5m 10m)
SYMBOL res 192 -96 R90
WINDOW 0 0 56 VBottom 2
WINDOW 3 32 56 VTop 2
SYMATTR InstName R1
SYMATTR Value 14K
SYMBOL res -16 112 R90
WINDOW 0 0 56 VBottom 2
WINDOW 3 32 56 VTop 2
SYMATTR InstName R2
SYMATTR Value 10K
SYMBOL LM741 144 144 R0
SYMATTR InstName U3
SYMBOL 1N4001 336 240 R180
WINDOW 3 41 32 Left 0
WINDOW 0 24 72 Left 0
SYMATTR InstName U1
SYMBOL res 400 160 R0
SYMATTR InstName R3
SYMATTR Value 1k
SYMBOL voltage 544 -192 R0
WINDOW 123 0 0 Left 0
WINDOW 39 0 0 Left 0
SYMATTR InstName V2
SYMATTR Value 12
SYMBOL cap 720 -320 R0
SYMATTR InstName C1
SYMATTR Value 100n
SYMBOL cap 720 -160 R0
SYMATTR InstName C2
SYMATTR Value 100n
TEXT -376 0 Left 2 !.tran 0 20m 0m .05m
