Version 4
SHEET 1 1176 680
WIRE 128 -304 128 -352
WIRE 176 -304 128 -304
WIRE 304 -304 304 -352
WIRE 304 -304 256 -304
WIRE -224 -176 -400 -176
WIRE -80 -176 -224 -176
WIRE 128 -176 128 -304
WIRE 128 -176 -80 -176
WIRE 192 -176 128 -176
WIRE 304 -176 304 -304
WIRE 304 -176 256 -176
WIRE 368 -176 304 -176
WIRE -400 -128 -400 -176
WIRE -832 -80 -976 -80
WIRE -688 -80 -768 -80
WIRE -576 -80 -608 -80
WIRE -464 -80 -576 -80
WIRE -448 -80 -464 -80
WIRE 368 -80 368 -176
WIRE -80 -48 -80 -176
WIRE -224 16 -224 -176
WIRE -576 64 -576 -80
WIRE -528 64 -576 64
WIRE -400 64 -400 -32
WIRE -400 64 -448 64
WIRE -288 64 -400 64
WIRE -976 80 -976 -80
WIRE -400 176 -400 64
WIRE -368 176 -400 176
WIRE -224 176 -224 112
WIRE -224 176 -288 176
WIRE -80 176 -80 16
WIRE -80 176 -224 176
WIRE 368 176 368 0
WIRE 368 176 -80 176
WIRE -976 384 -976 160
WIRE -80 384 -80 176
WIRE -80 384 -976 384
WIRE -976 416 -976 384
FLAG 304 -352 +Solenoid_Valve
IOPIN 304 -352 Out
FLAG 128 -352 -Solenoid_Valve
IOPIN 128 -352 Out
FLAG -976 416 0
SYMBOL npn -288 16 R0
SYMATTR InstName Q1
SYMBOL npn -464 -128 R0
SYMATTR InstName Q2
SYMBOL res -544 48 M90
WINDOW 0 0 56 VBottom 2
WINDOW 3 32 56 VTop 2
SYMATTR InstName R1
SYMATTR Value 8K
SYMBOL res -384 160 M90
WINDOW 0 0 56 VBottom 2
WINDOW 3 32 56 VTop 2
SYMATTR InstName R2
SYMATTR Value 0.12K
SYMBOL diode -96 16 M180
WINDOW 0 24 64 Left 2
WINDOW 3 24 0 Left 2
SYMATTR InstName D1
SYMBOL voltage 368 -96 M0
WINDOW 123 0 0 Left 0
WINDOW 39 0 0 Left 0
SYMATTR InstName V1
SYMATTR Value 12
SYMBOL voltage -976 64 M0
WINDOW 123 0 0 Left 0
WINDOW 39 0 0 Left 0
SYMATTR InstName Arduino_Vin
SYMATTR Value PULSE(0 5 2.5m .01m .01m 5m 10m)
SYMBOL 1N4001 192 -192 M90
WINDOW 3 32 32 VTop 2
WINDOW 0 0 32 VBottom 2
SYMATTR InstName U1
SYMBOL res -704 -96 M90
WINDOW 0 0 56 VBottom 2
WINDOW 3 32 56 VTop 2
SYMATTR InstName R3
SYMATTR Value 1000
SYMBOL res 160 -320 M90
WINDOW 0 0 56 VBottom 2
WINDOW 3 32 56 VTop 2
SYMATTR InstName RL
SYMATTR Value 1K
SYMBOL 1N4001 -832 -96 M90
WINDOW 3 32 32 VTop 2
WINDOW 0 0 32 VBottom 2
SYMATTR InstName U2
TEXT -592 -152 Right 2 ;B
TEXT -40 -256 Right 2 ;C
TEXT -40 224 Right 2 ;E
TEXT 112 312 Left 2 !.tran 0 20m 0m .05m
