Version 4
SHEET 1 1232 680
WIRE -272 -64 -272 -128
WIRE -272 -64 -320 -64
WIRE -208 -64 -272 -64
WIRE -192 -64 -208 -64
WIRE -80 -64 -80 -128
WIRE -80 -64 -144 -64
WIRE 128 -64 -80 -64
WIRE 448 -64 128 -64
WIRE 448 -16 448 -64
WIRE -320 32 -320 -64
WIRE 512 32 496 32
WIRE 624 32 512 32
WIRE 656 32 624 32
WIRE 768 32 736 32
WIRE 128 64 128 -64
WIRE 768 64 768 32
WIRE 448 176 448 80
WIRE 496 176 448 176
WIRE 624 176 624 32
WIRE 624 176 576 176
WIRE 768 192 768 144
WIRE -320 288 -320 112
WIRE 128 288 128 128
WIRE 128 288 -320 288
WIRE 448 288 448 176
WIRE 448 288 128 288
WIRE -320 320 -320 288
FLAG -320 320 0
FLAG 768 192 0
FLAG -272 -128 +Solenoid_Valve
IOPIN -272 -128 Out
FLAG -80 -128 -Solenoid_Valve
IOPIN -80 -128 Out
SYMBOL npn 512 -16 M0
SYMATTR InstName Q2
SYMBOL res 592 160 R90
WINDOW 0 0 56 VBottom 2
WINDOW 3 32 56 VTop 2
SYMATTR InstName R1
SYMATTR Value 8K
SYMBOL diode 144 128 R180
WINDOW 0 24 64 Left 2
WINDOW 3 24 0 Left 2
SYMATTR InstName D1
SYMBOL voltage -320 16 R0
WINDOW 123 0 0 Left 0
WINDOW 39 0 0 Left 0
SYMATTR InstName V1
SYMATTR Value 12
SYMBOL voltage 768 48 R0
WINDOW 123 0 0 Left 0
WINDOW 39 0 0 Left 0
SYMATTR InstName Arduino_Vin
SYMATTR Value PULSE(0 5 50m 10m 10m 50m 250m)
SYMBOL 1N4001 -144 -80 R90
WINDOW 3 32 32 VTop 2
WINDOW 0 0 32 VBottom 2
SYMATTR InstName U1
SYMBOL res 752 16 R90
WINDOW 0 0 56 VBottom 2
WINDOW 3 32 56 VTop 2
SYMATTR InstName R3
SYMATTR Value 1000
TEXT -352 344 Left 2 !.tran 0 1 0m .05m
